ELEMENTS
   O C N
END

SPECIES
   CO O2 CO2 N2
END

REACTIONS
    CO => CO	0.0	0.0	0.0
END
